* Definition file for TimEx - MITLL generic cell library with 250 uA JJ JTLs
* Author:   CJ Fourie
* Last mod: 5 January 2018
$Parameters
SourceType      = current
*SourceAmplitude = 600E-6
*SourceRiseTime  = 10E-12
*SourceFallTime  = 10E-12
SourceAmplitude = 1000E-6
SourceRiseTime  = 1E-12
SourceFallTime  = 1E-12
TimeFirstStable = 20E-12
WaitForStateChange = 40E-12
VerilogStableTime = 10E-12
VerilogWaitTime = 10E-12
SlidingIntegratorLength = 15.5E-12
PulseDetectThreshold = 0.8
PulseFluxonFraction = 0.8
CTDependencyThreshold = 0.1E-12
MaxDelayChange = 0.75E-12
MaxSelfDelayChange = 1.0E-12
MinSameInputSeparation = 5.0E-12
InputChainDelay = 7.5E-12
IOFullFluxon = TRUE              // I/O's are PTL; pulses not full fluxons
$End

*$Control
*Sweep Bias 0.6 0.1 1.4  // Sweep the "Bias" variable in netlists from 0.5 to 1.5 in steps of 0.1
*Sweep Bias 0.9 0.1 1.0  // Sweep the "Bias" variable in netlists from 0.5 to 1.5 in steps of 0.1
*$End

$DefaultLoadIn
.SUBCKT defloadin 2 5 
B1 1 6 jjmitll100 area=2.5 
B2 4 8 jjmitll100 area=2.5 
IB1 0 3 pwl(0 0 5p 350uA)
L1 2 1 2p  
L2 1 3 2p  
L3 3 4 2p  
L4 4 5 2p  
LB1 7 6 1p  
LB2 9 8 1p  
Lp1 6 0 0.2p  
Lp2 8 0 0.2p  
RB1 1 7 3.88  
RB2 4 9 3.88
.model jjmitll100 jj(rtype=1, vg=2.8mV, cap=0.07pF, r0=160, rn=16, icrit=0.1mA)
.ends defloadin
$End

$DefaultLoadOut
.SUBCKT defloadout 2 5 
B1 1 6 jjmitll100 area=2.5 
B2 4 8 jjmitll100 area=2.5 
IB1 0 3 pwl(0 0 5p 350uA)
L1 2 1 2p  
L2 1 3 2p  
L3 3 4 2p  
L4 4 5 2p  
LB1 7 6 1p  
LB2 9 8 1p  
Lp1 6 0 0.2p  
Lp2 8 0 0.2p  
RB1 1 7 3.88  
RB2 4 9 3.88
.model jjmitll100 jj(rtype=1, vg=2.8mV, cap=0.07pF, r0=160, rn=16, icrit=0.1mA)
.ends defloadout
$End

$DefaultSink
.SUBCKT defsink 1
R1 1 0 2
.ends defsink
$End

$DefaultSource
.SUBCKT gensource 8 11 
B1   1  2  jjmitll100 area=2.25 
B2   3  4  jjmitll100 area=2.25 
B3   5  6  jjmitll100 area=2.5 
IB1  0  2  pwl(0 0 5p 275uA)
IB2  0  5  pwl(0 0 5p 175uA)
L1   8  7  1p  
L2   7  0  3.9p  
L3   7  1  0.6p  
L4   2  3  1.1p  
L5   3  5  4.5p  
L6   5  11 2p  
Lp2  4  0  0.2p  
Lp3  6  0  0.2p  
LRB1 9  2  1p  
LRB2 10 4  1p  
LRB3 12 6  1p  
RB1  1  9  4.31  
RB2  3  10 4.31  
RB3  5  12 3.88  
.model jjmitll100 jj(rtype=1, vg=2.8mV, cap=0.07pF, r0=160, rn=16, icrit=0.1mA)
.ends gensource
$End